Version 4
SHEET 1 880 680
WIRE -560 -176 -560 -240
WIRE -560 -64 -560 -96
WIRE -368 -64 -560 -64
WIRE -368 -48 -368 -64
WIRE -560 -32 -560 -64
WIRE -128 32 -192 32
WIRE 32 32 -48 32
WIRE -192 48 -192 32
WIRE -560 96 -560 48
WIRE 320 96 320 80
WIRE 320 96 208 96
WIRE 32 112 32 32
WIRE 80 112 32 112
WIRE 320 128 208 128
WIRE -208 144 -304 144
WIRE 32 144 -128 144
WIRE 80 144 32 144
WIRE 320 144 320 128
WIRE 384 144 320 144
WIRE -304 160 -304 144
WIRE 240 160 208 160
WIRE 272 160 240 160
WIRE 272 192 272 160
WIRE 464 192 272 192
WIRE 240 208 240 160
WIRE -304 272 -304 240
WIRE 32 304 32 144
WIRE 96 304 32 304
WIRE 240 304 240 272
WIRE 240 304 176 304
FLAG -560 -240 3V3
FLAG 320 80 3V3
FLAG 464 192 Vout
FLAG -304 272 0
FLAG -560 96 -3V3
FLAG -368 -48 0
FLAG 384 144 -3V3
FLAG -192 48 0
SYMBOL AutoGenerated\\TLV9002 144 128 R0
SYMATTR InstName U1
SYMBOL voltage -560 -192 R0
WINDOW 123 0 0 Left 0
WINDOW 39 0 0 Left 0
SYMATTR InstName V1
SYMATTR Value 3.3
SYMBOL res -112 128 R90
WINDOW 0 0 56 VBottom 2
WINDOW 3 32 56 VTop 2
SYMATTR InstName R1
SYMATTR Value 100k
SYMBOL res 192 288 R90
WINDOW 0 0 56 VBottom 2
WINDOW 3 32 56 VTop 2
SYMATTR InstName R2
SYMATTR Value 100Meg
SYMBOL cap 224 208 R0
SYMATTR InstName C1
SYMATTR Value 1.59n
SYMBOL voltage -304 144 R0
WINDOW 123 0 0 Left 0
WINDOW 39 0 0 Left 0
SYMATTR InstName V2
SYMATTR Value PULSE(0 3.3 0 0.01m 0.01m 0.5m 1m)
SYMBOL voltage -560 -48 R0
WINDOW 123 0 0 Left 0
WINDOW 39 0 0 Left 0
SYMATTR InstName V3
SYMATTR Value 3.3
SYMBOL voltage -144 32 R270
WINDOW 0 32 56 VTop 2
WINDOW 3 -32 56 VBottom 2
WINDOW 123 0 0 Left 0
WINDOW 39 0 0 Left 0
SYMATTR InstName V4
SYMATTR Value -780µ
TEXT 80 -24 Left 2 !.tran 100m
